
 Fire Dynamics Simulator

 Current Date     : February  5, 2020  16:26:40
 Version          : FDS 6.5.3
 Revision         : 
 Revision Date    : 
 Compilation Date : 12/15/2018 Sat  01:42 PM

 MPI Disabled
 OpenMP Disabled

 Job TITLE        : WPWORK
 Job ID string    : TpreTest2020-01


 Grid Dimensions, Mesh     1

   Cells in the X Direction           156
   Cells in the Y Direction            96
   Cells in the Z Direction             1


 Physical Dimensions, Mesh     1

   Length (m)                      31.200
   Width  (m)                      19.200
   Height (m)                       1.200
   Initial Time Step (s)            0.200

 Grid Dimensions, Mesh     2

   Cells in the X Direction           156
   Cells in the Y Direction            96
   Cells in the Z Direction             1


 Physical Dimensions, Mesh     2

   Length (m)                      31.200
   Width  (m)                      19.200
   Height (m)                       0.580
   Initial Time Step (s)            0.200


 Miscellaneous Parameters

   Simulation Start Time (s)          0.0
   Simulation End Time (s)          130.0
   LES Calculation
   Deardorff Model (C_DEARDORFF)     0.10
   Turbulent Prandtl Number          0.50
   Turbulent Schmidt Number          0.50
   Ambient Temperature (C)          20.00


 Mass Fraction Transformation Matrix to Convert Species Mixtures (Columns) to Primitive Species (Rows)

                         AIR       POLYURET  PRODUCTS
   POLYURETHANE          0.000000  1.000000  0.000000
   NITROGEN              0.763077  0.000000  0.673030
   OXYGEN                0.231181  0.000000  0.000000
   CARBON DIOXIDE        0.000592  0.000000  0.242589
   CARBON MONOXIDE       0.000000  0.000000  0.000000
   WATER VAPOR           0.005149  0.000000  0.070648
   SOOT                  0.000000  0.000000  0.013733


 Primitive Species Information

   POLYURETHANE
   Gas Species
   Molecular Weight (g/mol)           130.42922
   Ambient Density (kg/m^3)            5.422
   Enthalpy of Formation (J/kg)       -3.21E+06

   NITROGEN
   Gas Species
   Molecular Weight (g/mol)            28.01340
   Ambient Density (kg/m^3)            1.165
   Enthalpy of Formation (J/kg)        0.00E+00

   OXYGEN
   Gas Species
   Molecular Weight (g/mol)            31.99880
   Ambient Density (kg/m^3)            1.330
   Enthalpy of Formation (J/kg)        0.00E+00

   CARBON DIOXIDE
   Gas Species
   Molecular Weight (g/mol)            44.00950
   Ambient Density (kg/m^3)            1.830
   Enthalpy of Formation (J/kg)       -8.94E+06

   CARBON MONOXIDE
   Gas Species
   Molecular Weight (g/mol)            28.01010
   Ambient Density (kg/m^3)            1.164
   Enthalpy of Formation (J/kg)       -3.95E+06

   WATER VAPOR
   Gas Species
   Molecular Weight (g/mol)            18.01528
   Ambient Density (kg/m^3)            0.749
   Enthalpy of Formation (J/kg)       -1.34E+07

   SOOT
   Gas Species
   Molecular Weight (g/mol)            10.91042
   Ambient Density (kg/m^3)            0.454
   Enthalpy of Formation (J/kg)        0.00E+00


 Tracked (Lumped) Species Information

   AIR
   Molecular Weight (g/mol)            28.76564
   Ambient Density (kg/m^3)            1.196
   Initial Mass Fraction               1.000
   Enthalpy of Formation (J/kg)     -7.44E+04

   Sub Species                    Mass Fraction     Mole Fraction
   NITROGEN                       7.630774E-01      7.835682E-01
   OXYGEN                         2.311814E-01      2.078229E-01
   CARBON DIOXIDE                 5.919362E-04      3.869034E-04
   WATER VAPOR                    5.149269E-03      8.222023E-03
 
     Viscosity (kg/m/s) Ambient,  293 K:  1.80E-05
                                  500 K:  2.61E-05
                                 1000 K:  4.13E-05
                                 1500 K:  5.37E-05
   Therm. Cond. (W/m/K) Ambient,  293 K:  2.56E-02
                                  500 K:  3.81E-02
                                 1000 K:  6.68E-02
                                 1500 K:  9.24E-02
        Enthalpy (J/kg) Ambient,  293 K: -7.97E+04
                                  500 K: -1.36E+05
                                 1000 K: -2.72E+05
                                 1500 K: -4.08E+05
    Spec. Heat (J/kg/K) Ambient,  293 K:  1.02E+03
                                  500 K:  1.04E+03
                                 1000 K:  1.16E+03
                                 1500 K:  1.23E+03
   Diff. Coeff. (m^2/s) Ambient,  293 K:  1.99E-05
                                  500 K:  4.96E-05
                                 1000 K:  1.58E-04
                                 1500 K:  3.09E-04

   POLYURETHANE
   Molecular Weight (g/mol)           130.42922
   Ambient Density (kg/m^3)            5.422
   Initial Mass Fraction               0.000
   Enthalpy of Formation (J/kg)     -3.21E+06

   Sub Species                    Mass Fraction     Mole Fraction
   POLYURETHANE                   1.000000E+00      1.000000E+00
 
     Viscosity (kg/m/s) Ambient,  293 K:  3.75E-05
                                  500 K:  5.42E-05
                                 1000 K:  8.52E-05
                                 1500 K:  1.11E-04
   Therm. Cond. (W/m/K) Ambient,  293 K:  1.18E-02
                                  500 K:  1.70E-02
                                 1000 K:  2.68E-02
                                 1500 K:  3.48E-02
        Enthalpy (J/kg) Ambient,  293 K: -3.21E+06
                                  500 K: -5.48E+06
                                 1000 K: -1.10E+07
                                 1500 K: -1.64E+07
    Spec. Heat (J/kg/K) Ambient,  293 K:  2.23E+02
                                  500 K:  2.23E+02
                                 1000 K:  2.23E+02
                                 1500 K:  2.23E+02
   Diff. Coeff. (m^2/s) Ambient,  293 K:  1.55E-05
                                  500 K:  3.85E-05
                                 1000 K:  1.22E-04
                                 1500 K:  2.39E-04

   PRODUCTS
   Molecular Weight (g/mol)            28.80371
   Ambient Density (kg/m^3)            1.197
   Initial Mass Fraction               0.000
   Enthalpy of Formation (J/kg)     -3.12E+06

   Sub Species                    Mass Fraction     Mole Fraction
   NITROGEN                       6.730299E-01      6.920173E-01
   CARBON DIOXIDE                 2.425892E-01      1.587718E-01
   CARBON MONOXIDE                0.000000E+00      0.000000E+00
   WATER VAPOR                    7.064759E-02      1.129548E-01
   SOOT                           1.373328E-02      3.625609E-02
 
     Viscosity (kg/m/s) Ambient,  293 K:  1.61E-05
                                  500 K:  2.39E-05
                                 1000 K:  3.88E-05
                                 1500 K:  5.10E-05
   Therm. Cond. (W/m/K) Ambient,  293 K:  2.30E-02
                                  500 K:  3.60E-02
                                 1000 K:  6.69E-02
                                 1500 K:  9.52E-02
        Enthalpy (J/kg) Ambient,  293 K: -3.12E+06
                                  500 K: -5.33E+06
                                 1000 K: -1.07E+07
                                 1500 K: -1.60E+07
    Spec. Heat (J/kg/K) Ambient,  293 K:  1.04E+03
                                  500 K:  1.11E+03
                                 1000 K:  1.27E+03
                                 1500 K:  1.37E+03
   Diff. Coeff. (m^2/s) Ambient,  293 K:  1.95E-05
                                  500 K:  4.92E-05
                                 1000 K:  1.58E-04
                                 1500 K:  3.11E-04


 Gas Phase Reaction Information

   C_6.3 H_7.1 N O_2.1, NFPA Handbook, Babrauskas

   Reaction ID:  POLYURETHANE

   Fuel                                           Heat of Combustion (kJ/kg)
   POLYURETHANE                                                   19023.6298

   Stoichiometry

   Primitive Species
   Species ID                                                 Stoich. Coeff.
   POLYURETHANE                                                    -1.000000
   NITROGEN                                                         0.500000
   OXYGEN                                                          -5.919204
   CARBON DIOXIDE                                                   5.224090
   WATER VAPOR                                                      3.490227
   SOOT                                                             1.195455

   Tracked (Lumped) Species
   Species ID                                                 Stoich. Coeff.
   AIR                                                            -28.481969
   POLYURETHANE                                                    -1.000000
   PRODUCTS                                                        32.972537

   Reaction Kinetics

   Arrhenius Parameters
   Pre-exponential:    Infinite
   Activation Energy:  N/A

   ODE Solver:  EXPLICIT EULER
   Extinction Model:  EXTINCTION 2
   Ignition Temperature (K):            0.0
   Critical Flame Temperature (K):   1600.2


 Material Information

   1 GYPSUM PLASTER                                              
     Quintiere, Fire Behavior
     Emissivity                      0.900
     Density (kg/m3)                1440.0
     Specific Heat (kJ/kg/K)          0.84
     Conductivity (W/m/K)           0.4800


 Surface Conditions

   0 INERT

   1 BURNER
     HRR Per Unit Area (kW/m2)       1000.0

   2 WALL (DEFAULT)
     Material List
          1  GYPSUM PLASTER
     Layer  1
        Thickness   (m):  0.01200
        Density (kg/m3):  1440.00
        GYPSUM PLASTER, Mass fraction:    1.00
     Total surface density    17.280 kg/m2
     Reaction products considered from the first  0.50 layers.
     Solid Phase Node, Layer, Coordinates(m):
                    0      1       0.0000000
                    1      1       0.0005455
                    2      1       0.0016364
                    3      1       0.0038182
                    4      1       0.0081818
                    5      1       0.0103636
                    6      1       0.0114545
                    7      1       0.0120000
     Exposed Backing

   3 OUTFLOW
     Normal Velocity (m/s)         0.000
     AIR Mass Fraction         1.000

   4 EVAC_WALL

   5 OPEN
     Passive Vent to Atmosphere

   6 MIRROR
     Symmetry Plane

   7 INTERPOLATED

   8 PERIODIC

   9 HVAC

  10 MASSLESS TRACER

  11 DROPLET

  12 VEGETATION

  13 EVACUATION_OUTFLOW
     Normal Velocity (m/s)         0.000

  14 MASSLESS TARGET

  15 PERIODIC WIND


 Device Properties

   1 Smoke Detector
     Activation Obscuration (%/m)    3.24
     Alpha_c or L                    1.80
     Beta_c                         -1.00
     Alpha_e                         0.00
     Beta_e                         -1.00
     Smokeview ID                smoke_detector

   2 Acme Heat
     RTI (m-s)^1/2                   50.0
     Activation Temperature (C)      44.0
     Smokeview ID                heat_detector



 Run Time Diagnostics

       Time Step       1   February  5, 2020  16:26:41
       Step Size:    0.200E+00 s, Total Time:       0.20 s
       Pressure Iterations:      1
       Maximum Velocity Error:  0.00E+00 on Mesh   1 at (   0   0   0)
       Maximum Pressure Error:  0.00E+00 on Mesh   1 at (   0   0   0)
       ---------------------------------------------------------------

       Time Step       2   February  5, 2020  16:26:41
       Step Size:    0.200E+00 s, Total Time:       0.40 s
       Pressure Iterations:      1
       Maximum Velocity Error:  0.00E+00 on Mesh   1 at (   0   0   0)
       Maximum Pressure Error:  0.00E+00 on Mesh   1 at (   0   0   0)
       ---------------------------------------------------------------

       Time Step       3   February  5, 2020  16:26:41
       Step Size:    0.200E+00 s, Total Time:       0.60 s
       Pressure Iterations:      1
       Maximum Velocity Error:  0.00E+00 on Mesh   1 at (   0   0   0)
       Maximum Pressure Error:  0.00E+00 on Mesh   1 at (   0   0   0)
       ---------------------------------------------------------------

       Time Step       4   February  5, 2020  16:26:41
       Step Size:    0.200E+00 s, Total Time:       0.80 s
       Pressure Iterations:      1
       Maximum Velocity Error:  0.00E+00 on Mesh   1 at (   0   0   0)
       Maximum Pressure Error:  0.00E+00 on Mesh   1 at (   0   0   0)
       ---------------------------------------------------------------

       Time Step       5   February  5, 2020  16:26:41
       Step Size:    0.200E+00 s, Total Time:       1.00 s
       Pressure Iterations:      1
       Maximum Velocity Error:  0.00E+00 on Mesh   1 at (   0   0   0)
       Maximum Pressure Error:  0.00E+00 on Mesh   1 at (   0   0   0)
       ---------------------------------------------------------------

       Time Step       6   February  5, 2020  16:26:42
       Step Size:    0.200E+00 s, Total Time:       1.20 s
       Pressure Iterations:      1
       Maximum Velocity Error:  0.00E+00 on Mesh   1 at (   0   0   0)
       Maximum Pressure Error:  0.00E+00 on Mesh   1 at (   0   0   0)
       ---------------------------------------------------------------

       Time Step       7   February  5, 2020  16:26:42
       Step Size:    0.200E+00 s, Total Time:       1.40 s
       Pressure Iterations:      1
       Maximum Velocity Error:  0.00E+00 on Mesh   1 at (   0   0   0)
       Maximum Pressure Error:  0.00E+00 on Mesh   1 at (   0   0   0)
       ---------------------------------------------------------------

       Time Step       8   February  5, 2020  16:26:42
       Step Size:    0.200E+00 s, Total Time:       1.60 s
       Pressure Iterations:      1
       Maximum Velocity Error:  0.00E+00 on Mesh   1 at (   0   0   0)
       Maximum Pressure Error:  0.00E+00 on Mesh   1 at (   0   0   0)
       ---------------------------------------------------------------

       Time Step       9   February  5, 2020  16:26:42
       Step Size:    0.200E+00 s, Total Time:       1.80 s
       Pressure Iterations:      1
       Maximum Velocity Error:  0.00E+00 on Mesh   1 at (   0   0   0)
       Maximum Pressure Error:  0.00E+00 on Mesh   1 at (   0   0   0)
       ---------------------------------------------------------------

       Time Step      10   February  5, 2020  16:26:42
       Step Size:    0.200E+00 s, Total Time:       2.00 s
       Pressure Iterations:      1
       Maximum Velocity Error:  0.00E+00 on Mesh   1 at (   0   0   0)
       Maximum Pressure Error:  0.00E+00 on Mesh   1 at (   0   0   0)
       ---------------------------------------------------------------

       Time Step      20   February  5, 2020  16:26:43
       Step Size:    0.200E+00 s, Total Time:       4.00 s
       Pressure Iterations:      1
       Maximum Velocity Error:  0.00E+00 on Mesh   1 at (   0   0   0)
       Maximum Pressure Error:  0.00E+00 on Mesh   1 at (   0   0   0)
       ---------------------------------------------------------------

       Time Step      30   February  5, 2020  16:26:44
       Step Size:    0.200E+00 s, Total Time:       6.00 s
       Pressure Iterations:      1
       Maximum Velocity Error:  0.00E+00 on Mesh   1 at (   0   0   0)
       Maximum Pressure Error:  0.00E+00 on Mesh   1 at (   0   0   0)
       ---------------------------------------------------------------

       Time Step      40   February  5, 2020  16:26:45
       Step Size:    0.200E+00 s, Total Time:       8.00 s
       Pressure Iterations:      1
       Maximum Velocity Error:  0.00E+00 on Mesh   1 at (   0   0   0)
       Maximum Pressure Error:  0.00E+00 on Mesh   1 at (   0   0   0)
       ---------------------------------------------------------------

       Time Step      50   February  5, 2020  16:26:47
       Step Size:    0.200E+00 s, Total Time:      10.00 s
       Pressure Iterations:      1
       Maximum Velocity Error:  0.00E+00 on Mesh   1 at (   0   0   0)
       Maximum Pressure Error:  0.00E+00 on Mesh   1 at (   0   0   0)
       ---------------------------------------------------------------

       Time Step      60   February  5, 2020  16:26:48
       Step Size:    0.200E+00 s, Total Time:      12.00 s
       Pressure Iterations:      1
       Maximum Velocity Error:  0.00E+00 on Mesh   1 at (   0   0   0)
       Maximum Pressure Error:  0.00E+00 on Mesh   1 at (   0   0   0)
       ---------------------------------------------------------------

       Time Step      70   February  5, 2020  16:26:49
       Step Size:    0.200E+00 s, Total Time:      14.00 s
       Pressure Iterations:      1
       Maximum Velocity Error:  0.00E+00 on Mesh   1 at (   0   0   0)
       Maximum Pressure Error:  0.00E+00 on Mesh   1 at (   0   0   0)
       ---------------------------------------------------------------

       Time Step      80   February  5, 2020  16:26:50
       Step Size:    0.200E+00 s, Total Time:      16.00 s
       Pressure Iterations:      1
       Maximum Velocity Error:  0.00E+00 on Mesh   1 at (   0   0   0)
       Maximum Pressure Error:  0.00E+00 on Mesh   1 at (   0   0   0)
       ---------------------------------------------------------------

       Time Step      90   February  5, 2020  16:26:51
       Step Size:    0.200E+00 s, Total Time:      18.00 s
       Pressure Iterations:      1
       Maximum Velocity Error:  0.00E+00 on Mesh   1 at (   0   0   0)
       Maximum Pressure Error:  0.00E+00 on Mesh   1 at (   0   0   0)
       ---------------------------------------------------------------

       Time Step     100   February  5, 2020  16:26:53
       Step Size:    0.200E+00 s, Total Time:      20.00 s
       Pressure Iterations:      1
       Maximum Velocity Error:  0.00E+00 on Mesh   1 at (   0   0   0)
       Maximum Pressure Error:  0.00E+00 on Mesh   1 at (   0   0   0)
       ---------------------------------------------------------------

       Time Step     200   February  5, 2020  16:27:03
       Step Size:    0.200E+00 s, Total Time:      40.00 s
       Pressure Iterations:      1
       Maximum Velocity Error:  0.00E+00 on Mesh   1 at (   0   0   0)
       Maximum Pressure Error:  0.00E+00 on Mesh   1 at (   0   0   0)
       ---------------------------------------------------------------

       Time Step     300   February  5, 2020  16:27:14
       Step Size:    0.200E+00 s, Total Time:      60.00 s
       Pressure Iterations:      1
       Maximum Velocity Error:  0.00E+00 on Mesh   1 at (   0   0   0)
       Maximum Pressure Error:  0.00E+00 on Mesh   1 at (   0   0   0)
       ---------------------------------------------------------------

       Time Step     400   February  5, 2020  16:27:23
       Step Size:    0.200E+00 s, Total Time:      80.00 s
       Pressure Iterations:      1
       Maximum Velocity Error:  0.00E+00 on Mesh   1 at (   0   0   0)
       Maximum Pressure Error:  0.00E+00 on Mesh   1 at (   0   0   0)
       ---------------------------------------------------------------

       Time Step     500   February  5, 2020  16:27:28
       Step Size:    0.200E+00 s, Total Time:     100.00 s
       Pressure Iterations:      1
       Maximum Velocity Error:  0.00E+00 on Mesh   1 at (   0   0   0)
       Maximum Pressure Error:  0.00E+00 on Mesh   1 at (   0   0   0)
       ---------------------------------------------------------------

       Time Step     600   February  5, 2020  16:27:33
       Step Size:    0.200E+00 s, Total Time:     120.00 s
       Pressure Iterations:      1
       Maximum Velocity Error:  0.00E+00 on Mesh   1 at (   0   0   0)
       Maximum Pressure Error:  0.00E+00 on Mesh   1 at (   0   0   0)
       ---------------------------------------------------------------

       Time Step     650   February  5, 2020  16:27:35
       Step Size:    0.200E+00 s, Total Time:     130.00 s
       Pressure Iterations:      1
       Maximum Velocity Error:  0.00E+00 on Mesh   1 at (   0   0   0)
       Maximum Pressure Error:  0.00E+00 on Mesh   1 at (   0   0   0)
       ---------------------------------------------------------------



 Time Stepping Wall Clock Time (s):       55.219
 Total Elapsed Wall Clock Time (s):       55.891

STOP: FDS completed successfully (CHID: TpreTest2020-01)
